SUMMARY OF JOB INFORMATION
  STEP      INC     ATT  ITRS     TOT TIME     STEP TIME      INC TIME
     1          1     1     2  0.100000E-01  0.100000E-01  0.100000E-01
     1          1     2     2  0.100000E-01  0.100000E-01  0.100000E-01
     1          1     2     2  0.100000E-01  0.100000E-01  0.100000E-01
     1          1     2     2  0.100000E-01  0.100000E-01  0.100000E-01
     1          1     2     2  0.100000E-01  0.100000E-01  0.100000E-01
     1          2     1     2  0.200000E-01  0.200000E-01  0.100000E-01
     1          2     2     2  0.200000E-01  0.200000E-01  0.100000E-01
     1          2     2     2  0.200000E-01  0.200000E-01  0.100000E-01
     1          2     2     2  0.200000E-01  0.200000E-01  0.100000E-01
     1          2     2     2  0.200000E-01  0.200000E-01  0.100000E-01
     1          3     1     2  0.300000E-01  0.300000E-01  0.100000E-01
     1          3     2     2  0.300000E-01  0.300000E-01  0.100000E-01
     1          3     2     2  0.300000E-01  0.300000E-01  0.100000E-01
     1          3     2     2  0.300000E-01  0.300000E-01  0.100000E-01
     1          4     1     2  0.400000E-01  0.400000E-01  0.100000E-01
     1          4     2     2  0.400000E-01  0.400000E-01  0.100000E-01
     1          4     2     2  0.400000E-01  0.400000E-01  0.100000E-01
     1          4     2     2  0.400000E-01  0.400000E-01  0.100000E-01
     1          5     1     2  0.500000E-01  0.500000E-01  0.100000E-01
     1          5     2     2  0.500000E-01  0.500000E-01  0.100000E-01
     1          5     2     2  0.500000E-01  0.500000E-01  0.100000E-01
     1          5     2     2  0.500000E-01  0.500000E-01  0.100000E-01
     1          6     1     2  0.600000E-01  0.600000E-01  0.100000E-01
     1          6     2     2  0.600000E-01  0.600000E-01  0.100000E-01
     1          6     2     2  0.600000E-01  0.600000E-01  0.100000E-01
     1          6     2     2  0.600000E-01  0.600000E-01  0.100000E-01
     1          7     1     2  0.700000E-01  0.700000E-01  0.100000E-01
     1          7     2     2  0.700000E-01  0.700000E-01  0.100000E-01
     1          7     2     2  0.700000E-01  0.700000E-01  0.100000E-01
     1          7     2     2  0.700000E-01  0.700000E-01  0.100000E-01
     1          8     1     2  0.800000E-01  0.800000E-01  0.100000E-01
     1          8     2     2  0.800000E-01  0.800000E-01  0.100000E-01
     1          8     2     2  0.800000E-01  0.800000E-01  0.100000E-01
     1          8     2     2  0.800000E-01  0.800000E-01  0.100000E-01
     1          9     1     2  0.900000E-01  0.900000E-01  0.100000E-01
     1          9     2     2  0.900000E-01  0.900000E-01  0.100000E-01
     1          9     2     2  0.900000E-01  0.900000E-01  0.100000E-01
     1          9     2     2  0.900000E-01  0.900000E-01  0.100000E-01
     1         10     1     2  0.100000E+00  0.100000E+00  0.100000E-01
     1         10     2     2  0.100000E+00  0.100000E+00  0.100000E-01
     1         10     2     2  0.100000E+00  0.100000E+00  0.100000E-01
     1         10     2     2  0.100000E+00  0.100000E+00  0.100000E-01
     1         11     1     2  0.110000E+00  0.110000E+00  0.100000E-01
     1         11     2     2  0.110000E+00  0.110000E+00  0.100000E-01
     1         11     2     2  0.110000E+00  0.110000E+00  0.100000E-01
     1         11     2     2  0.110000E+00  0.110000E+00  0.100000E-01
     1         12     1     2  0.120000E+00  0.120000E+00  0.100000E-01
     1         12     2     2  0.120000E+00  0.120000E+00  0.100000E-01
     1         12     2     2  0.120000E+00  0.120000E+00  0.100000E-01
     1         13     1     2  0.130000E+00  0.130000E+00  0.100000E-01
     1         13     2     2  0.130000E+00  0.130000E+00  0.100000E-01
     1         13     2     2  0.130000E+00  0.130000E+00  0.100000E-01
     1         13     2     2  0.130000E+00  0.130000E+00  0.100000E-01
     1         14     1     2  0.140000E+00  0.140000E+00  0.100000E-01
     1         14     2     2  0.140000E+00  0.140000E+00  0.100000E-01
     1         14     2     2  0.140000E+00  0.140000E+00  0.100000E-01
     1         14     2     2  0.140000E+00  0.140000E+00  0.100000E-01
     1         15     1     2  0.150000E+00  0.150000E+00  0.100000E-01
     1         15     2     2  0.150000E+00  0.150000E+00  0.100000E-01
     1         15     2     2  0.150000E+00  0.150000E+00  0.100000E-01
     1         16     1     2  0.160000E+00  0.160000E+00  0.100000E-01
     1         16     2     2  0.160000E+00  0.160000E+00  0.100000E-01
     1         16     2     2  0.160000E+00  0.160000E+00  0.100000E-01
     1         17     1     2  0.170000E+00  0.170000E+00  0.100000E-01
     1         17     2     2  0.170000E+00  0.170000E+00  0.100000E-01
     1         17     2     2  0.170000E+00  0.170000E+00  0.100000E-01
     1         18     1     2  0.180000E+00  0.180000E+00  0.100000E-01
     1         18     2     2  0.180000E+00  0.180000E+00  0.100000E-01
     1         18     2     2  0.180000E+00  0.180000E+00  0.100000E-01
     1         19     1     2  0.190000E+00  0.190000E+00  0.100000E-01
     1         19     2     2  0.190000E+00  0.190000E+00  0.100000E-01
     1         19     2     2  0.190000E+00  0.190000E+00  0.100000E-01
     1         20     1     2  0.200000E+00  0.200000E+00  0.100000E-01
     1         20     2     2  0.200000E+00  0.200000E+00  0.100000E-01
     1         20     2     2  0.200000E+00  0.200000E+00  0.100000E-01
     1         21     1     2  0.210000E+00  0.210000E+00  0.100000E-01
     1         21     2     2  0.210000E+00  0.210000E+00  0.100000E-01
     1         21     2     2  0.210000E+00  0.210000E+00  0.100000E-01
     1         22     1     2  0.220000E+00  0.220000E+00  0.100000E-01
     1         22     2     2  0.220000E+00  0.220000E+00  0.100000E-01
     1         22     2     2  0.220000E+00  0.220000E+00  0.100000E-01
     1         23     1     2  0.230000E+00  0.230000E+00  0.100000E-01
     1         23     2     2  0.230000E+00  0.230000E+00  0.100000E-01
     1         23     2     2  0.230000E+00  0.230000E+00  0.100000E-01
     1         24     1     2  0.240000E+00  0.240000E+00  0.100000E-01
     1         24     2     2  0.240000E+00  0.240000E+00  0.100000E-01
     1         24     2     2  0.240000E+00  0.240000E+00  0.100000E-01
     1         25     1     2  0.250000E+00  0.250000E+00  0.100000E-01
     1         25     2     2  0.250000E+00  0.250000E+00  0.100000E-01
     1         25     2     2  0.250000E+00  0.250000E+00  0.100000E-01
     1         26     1     2  0.260000E+00  0.260000E+00  0.100000E-01
     1         26     2     2  0.260000E+00  0.260000E+00  0.100000E-01
     1         26     2     2  0.260000E+00  0.260000E+00  0.100000E-01
     1         27     1     2  0.270000E+00  0.270000E+00  0.100000E-01
     1         27     2     2  0.270000E+00  0.270000E+00  0.100000E-01
     1         27     2     2  0.270000E+00  0.270000E+00  0.100000E-01
     1         28     1     2  0.280000E+00  0.280000E+00  0.100000E-01
     1         28     2     2  0.280000E+00  0.280000E+00  0.100000E-01
     1         28     2     2  0.280000E+00  0.280000E+00  0.100000E-01
     1         29     1     2  0.290000E+00  0.290000E+00  0.100000E-01
     1         29     2     2  0.290000E+00  0.290000E+00  0.100000E-01
     1         29     2     2  0.290000E+00  0.290000E+00  0.100000E-01
     1         30     1     2  0.300000E+00  0.300000E+00  0.100000E-01
     1         30     2     2  0.300000E+00  0.300000E+00  0.100000E-01
     1         30     2     2  0.300000E+00  0.300000E+00  0.100000E-01
     1         31     1     2  0.310000E+00  0.310000E+00  0.100000E-01
     1         31     2     2  0.310000E+00  0.310000E+00  0.100000E-01
     1         31     2     2  0.310000E+00  0.310000E+00  0.100000E-01
     1         32     1     2  0.320000E+00  0.320000E+00  0.100000E-01
     1         32     2     2  0.320000E+00  0.320000E+00  0.100000E-01
     1         32     2     2  0.320000E+00  0.320000E+00  0.100000E-01
     1         33     1     2  0.330000E+00  0.330000E+00  0.100000E-01
     1         33     2     2  0.330000E+00  0.330000E+00  0.100000E-01
     1         33     2     2  0.330000E+00  0.330000E+00  0.100000E-01
     1         34     1     2  0.340000E+00  0.340000E+00  0.100000E-01
     1         34     2     2  0.340000E+00  0.340000E+00  0.100000E-01
     1         34     2     2  0.340000E+00  0.340000E+00  0.100000E-01
     1         35     1     2  0.350000E+00  0.350000E+00  0.100000E-01
     1         35     2     2  0.350000E+00  0.350000E+00  0.100000E-01
     1         35     2     2  0.350000E+00  0.350000E+00  0.100000E-01
     1         36     1     2  0.360000E+00  0.360000E+00  0.100000E-01
     1         36     2     2  0.360000E+00  0.360000E+00  0.100000E-01
     1         36     2     2  0.360000E+00  0.360000E+00  0.100000E-01
     1         37     1     2  0.370000E+00  0.370000E+00  0.100000E-01
     1         37     2     2  0.370000E+00  0.370000E+00  0.100000E-01
     1         37     2     2  0.370000E+00  0.370000E+00  0.100000E-01
     1         38     1     2  0.380000E+00  0.380000E+00  0.100000E-01
     1         38     2     2  0.380000E+00  0.380000E+00  0.100000E-01
     1         38     2     2  0.380000E+00  0.380000E+00  0.100000E-01
     1         39     1     2  0.390000E+00  0.390000E+00  0.100000E-01
     1         39     2     2  0.390000E+00  0.390000E+00  0.100000E-01
     1         39     2     2  0.390000E+00  0.390000E+00  0.100000E-01
     1         40     1     2  0.400000E+00  0.400000E+00  0.100000E-01
     1         40     2     2  0.400000E+00  0.400000E+00  0.100000E-01
     1         40     2     2  0.400000E+00  0.400000E+00  0.100000E-01
     1         41     1     2  0.410000E+00  0.410000E+00  0.100000E-01
     1         41     2     2  0.410000E+00  0.410000E+00  0.100000E-01
     1         41     2     2  0.410000E+00  0.410000E+00  0.100000E-01
     1         42     1     2  0.420000E+00  0.420000E+00  0.100000E-01
     1         42     2     2  0.420000E+00  0.420000E+00  0.100000E-01
     1         42     2     2  0.420000E+00  0.420000E+00  0.100000E-01
     1         43     1     2  0.430000E+00  0.430000E+00  0.100000E-01
     1         43     2     2  0.430000E+00  0.430000E+00  0.100000E-01
     1         43     2     2  0.430000E+00  0.430000E+00  0.100000E-01
     1         44     1     2  0.440000E+00  0.440000E+00  0.100000E-01
     1         44     2     2  0.440000E+00  0.440000E+00  0.100000E-01
     1         44     2     2  0.440000E+00  0.440000E+00  0.100000E-01
     1         45     1     2  0.450000E+00  0.450000E+00  0.100000E-01
     1         45     2     2  0.450000E+00  0.450000E+00  0.100000E-01
     1         45     2     2  0.450000E+00  0.450000E+00  0.100000E-01
     1         46     1     2  0.460000E+00  0.460000E+00  0.100000E-01
     1         46     2     2  0.460000E+00  0.460000E+00  0.100000E-01
     1         46     2     2  0.460000E+00  0.460000E+00  0.100000E-01
     1         47     1     2  0.470000E+00  0.470000E+00  0.100000E-01
     1         47     2     2  0.470000E+00  0.470000E+00  0.100000E-01
     1         47     2     2  0.470000E+00  0.470000E+00  0.100000E-01
     1         48     1     2  0.480000E+00  0.480000E+00  0.100000E-01
     1         48     2     2  0.480000E+00  0.480000E+00  0.100000E-01
     1         48     2     2  0.480000E+00  0.480000E+00  0.100000E-01
     1         49     1     2  0.490000E+00  0.490000E+00  0.100000E-01
     1         49     2     2  0.490000E+00  0.490000E+00  0.100000E-01
     1         49     2     2  0.490000E+00  0.490000E+00  0.100000E-01
     1         50     1     2  0.500000E+00  0.500000E+00  0.100000E-01
     1         50     2     2  0.500000E+00  0.500000E+00  0.100000E-01
     1         50     2     2  0.500000E+00  0.500000E+00  0.100000E-01
     1         51     1     2  0.510000E+00  0.510000E+00  0.100000E-01
     1         51     2     2  0.510000E+00  0.510000E+00  0.100000E-01
     1         51     2     2  0.510000E+00  0.510000E+00  0.100000E-01
     1         52     1     2  0.520000E+00  0.520000E+00  0.100000E-01
     1         52     2     2  0.520000E+00  0.520000E+00  0.100000E-01
     1         52     2     2  0.520000E+00  0.520000E+00  0.100000E-01
     1         53     1     2  0.530000E+00  0.530000E+00  0.100000E-01
     1         53     2     2  0.530000E+00  0.530000E+00  0.100000E-01
     1         53     2     2  0.530000E+00  0.530000E+00  0.100000E-01
     1         54     1     2  0.540000E+00  0.540000E+00  0.100000E-01
     1         54     2     2  0.540000E+00  0.540000E+00  0.100000E-01
     1         54     2     2  0.540000E+00  0.540000E+00  0.100000E-01
     1         55     1     2  0.550000E+00  0.550000E+00  0.100000E-01
     1         55     2     2  0.550000E+00  0.550000E+00  0.100000E-01
     1         55     2     2  0.550000E+00  0.550000E+00  0.100000E-01
     1         56     1     2  0.560000E+00  0.560000E+00  0.100000E-01
     1         56     2     2  0.560000E+00  0.560000E+00  0.100000E-01
     1         56     2     2  0.560000E+00  0.560000E+00  0.100000E-01
     1         57     1     2  0.570000E+00  0.570000E+00  0.100000E-01
     1         57     2     2  0.570000E+00  0.570000E+00  0.100000E-01
     1         57     2     2  0.570000E+00  0.570000E+00  0.100000E-01
     1         58     1     2  0.580000E+00  0.580000E+00  0.100000E-01
     1         58     2     2  0.580000E+00  0.580000E+00  0.100000E-01
     1         58     2     2  0.580000E+00  0.580000E+00  0.100000E-01
     1         59     1     2  0.590000E+00  0.590000E+00  0.100000E-01
     1         59     2     2  0.590000E+00  0.590000E+00  0.100000E-01
     1         60     1     2  0.600000E+00  0.600000E+00  0.100000E-01
     1         60     2     2  0.600000E+00  0.600000E+00  0.100000E-01
     1         61     1     2  0.610000E+00  0.610000E+00  0.100000E-01
     1         61     2     2  0.610000E+00  0.610000E+00  0.100000E-01
     1         61     2     2  0.610000E+00  0.610000E+00  0.100000E-01
     1         62     1     2  0.620000E+00  0.620000E+00  0.100000E-01
     1         62     2     2  0.620000E+00  0.620000E+00  0.100000E-01
     1         63     1     2  0.630000E+00  0.630000E+00  0.100000E-01
     1         63     2     2  0.630000E+00  0.630000E+00  0.100000E-01
     1         63     2     2  0.630000E+00  0.630000E+00  0.100000E-01
     1         64     1     2  0.640000E+00  0.640000E+00  0.100000E-01
     1         64     2     2  0.640000E+00  0.640000E+00  0.100000E-01
     1         65     1     2  0.650000E+00  0.650000E+00  0.100000E-01
     1         65     2     2  0.650000E+00  0.650000E+00  0.100000E-01
     1         65     2     2  0.650000E+00  0.650000E+00  0.100000E-01
     1         66     1     2  0.660000E+00  0.660000E+00  0.100000E-01
     1         66     2     2  0.660000E+00  0.660000E+00  0.100000E-01
     1         66     2     2  0.660000E+00  0.660000E+00  0.100000E-01
     1         67     1     2  0.670000E+00  0.670000E+00  0.100000E-01
     1         67     2     2  0.670000E+00  0.670000E+00  0.100000E-01
     1         67     2     2  0.670000E+00  0.670000E+00  0.100000E-01
     1         68     1     2  0.680000E+00  0.680000E+00  0.100000E-01
     1         68     2     2  0.680000E+00  0.680000E+00  0.100000E-01
     1         68     2     2  0.680000E+00  0.680000E+00  0.100000E-01
     1         69     1     2  0.690000E+00  0.690000E+00  0.100000E-01
     1         69     2     2  0.690000E+00  0.690000E+00  0.100000E-01
     1         69     2     2  0.690000E+00  0.690000E+00  0.100000E-01
     1         70     1     2  0.700000E+00  0.700000E+00  0.100000E-01
     1         70     2     2  0.700000E+00  0.700000E+00  0.100000E-01
     1         71     1     2  0.710000E+00  0.710000E+00  0.100000E-01
     1         71     2     2  0.710000E+00  0.710000E+00  0.100000E-01
     1         71     2     2  0.710000E+00  0.710000E+00  0.100000E-01
     1         72     1     2  0.720000E+00  0.720000E+00  0.100000E-01
     1         72     2     2  0.720000E+00  0.720000E+00  0.100000E-01
     1         73     1     2  0.730000E+00  0.730000E+00  0.100000E-01
     1         73     2     2  0.730000E+00  0.730000E+00  0.100000E-01
     1         73     2     2  0.730000E+00  0.730000E+00  0.100000E-01
     1         74     1     2  0.740000E+00  0.740000E+00  0.100000E-01
     1         74     2     2  0.740000E+00  0.740000E+00  0.100000E-01
     1         75     1     2  0.750000E+00  0.750000E+00  0.100000E-01
     1         75     2     2  0.750000E+00  0.750000E+00  0.100000E-01
     1         76     1     2  0.760000E+00  0.760000E+00  0.100000E-01
     1         76     2     2  0.760000E+00  0.760000E+00  0.100000E-01
     1         76     2     2  0.760000E+00  0.760000E+00  0.100000E-01
     1         77     1     2  0.770000E+00  0.770000E+00  0.100000E-01
     1         77     2     2  0.770000E+00  0.770000E+00  0.100000E-01
     1         77     2     2  0.770000E+00  0.770000E+00  0.100000E-01
     1         78     1     2  0.780000E+00  0.780000E+00  0.100000E-01
     1         78     2     2  0.780000E+00  0.780000E+00  0.100000E-01
     1         79     1     2  0.790000E+00  0.790000E+00  0.100000E-01
     1         79     2     2  0.790000E+00  0.790000E+00  0.100000E-01
     1         79     2     2  0.790000E+00  0.790000E+00  0.100000E-01
     1         80     1     2  0.800000E+00  0.800000E+00  0.100000E-01
     1         80     2     2  0.800000E+00  0.800000E+00  0.100000E-01
     1         81     1     2  0.810000E+00  0.810000E+00  0.100000E-01
     1         81     2     2  0.810000E+00  0.810000E+00  0.100000E-01
     1         82     1     2  0.820000E+00  0.820000E+00  0.100000E-01
     1         82     2     2  0.820000E+00  0.820000E+00  0.100000E-01
     1         83     1     2  0.830000E+00  0.830000E+00  0.100000E-01
     1         83     2     2  0.830000E+00  0.830000E+00  0.100000E-01
     1         83     2     2  0.830000E+00  0.830000E+00  0.100000E-01
     1         84     1     2  0.840000E+00  0.840000E+00  0.100000E-01
     1         84     2     2  0.840000E+00  0.840000E+00  0.100000E-01
     1         84     2     2  0.840000E+00  0.840000E+00  0.100000E-01
     1         85     1     2  0.850000E+00  0.850000E+00  0.100000E-01
     1         85     2     2  0.850000E+00  0.850000E+00  0.100000E-01
     1         85     2     2  0.850000E+00  0.850000E+00  0.100000E-01
     1         86     1     2  0.860000E+00  0.860000E+00  0.100000E-01
     1         86     2     2  0.860000E+00  0.860000E+00  0.100000E-01
     1         87     1     2  0.870000E+00  0.870000E+00  0.100000E-01
     1         87     2     2  0.870000E+00  0.870000E+00  0.100000E-01
     1         88     1     2  0.880000E+00  0.880000E+00  0.100000E-01
     1         88     2     2  0.880000E+00  0.880000E+00  0.100000E-01
     1         88     2     2  0.880000E+00  0.880000E+00  0.100000E-01
     1         89     1     2  0.890000E+00  0.890000E+00  0.100000E-01
     1         89     2     2  0.890000E+00  0.890000E+00  0.100000E-01
     1         89     2     2  0.890000E+00  0.890000E+00  0.100000E-01
     1         90     1     2  0.900000E+00  0.900000E+00  0.100000E-01
     1         90     2     2  0.900000E+00  0.900000E+00  0.100000E-01
     1         90     2     2  0.900000E+00  0.900000E+00  0.100000E-01
     1         91     1     2  0.910000E+00  0.910000E+00  0.100000E-01
     1         91     2     2  0.910000E+00  0.910000E+00  0.100000E-01
     1         91     2     2  0.910000E+00  0.910000E+00  0.100000E-01
     1         92     1     2  0.920000E+00  0.920000E+00  0.100000E-01
     1         92     2     2  0.920000E+00  0.920000E+00  0.100000E-01
     1         92     2     2  0.920000E+00  0.920000E+00  0.100000E-01
     1         93     1     2  0.930000E+00  0.930000E+00  0.100000E-01
     1         93     2     2  0.930000E+00  0.930000E+00  0.100000E-01
     1         93     2     2  0.930000E+00  0.930000E+00  0.100000E-01
     1         94     1     2  0.940000E+00  0.940000E+00  0.100000E-01
     1         94     2     2  0.940000E+00  0.940000E+00  0.100000E-01
     1         95     1     2  0.950000E+00  0.950000E+00  0.100000E-01
     1         95     2     2  0.950000E+00  0.950000E+00  0.100000E-01
     1         96     1     2  0.960000E+00  0.960000E+00  0.100000E-01
     1         96     2     2  0.960000E+00  0.960000E+00  0.100000E-01
     1         96     2     2  0.960000E+00  0.960000E+00  0.100000E-01
     1         97     1     2  0.970000E+00  0.970000E+00  0.100000E-01
     1         97     2     2  0.970000E+00  0.970000E+00  0.100000E-01
     1         98     1     2  0.980000E+00  0.980000E+00  0.100000E-01
     1         98     2     2  0.980000E+00  0.980000E+00  0.100000E-01
     1         99     1     2  0.990000E+00  0.990000E+00  0.100000E-01
     1         99     2     2  0.990000E+00  0.990000E+00  0.100000E-01
     1         99     2     2  0.990000E+00  0.990000E+00  0.100000E-01
     1        100     1     2  0.100000E+01  0.100000E+01  0.100000E-01
     1        100     2     2  0.100000E+01  0.100000E+01  0.100000E-01
     1        100     2     2  0.100000E+01  0.100000E+01  0.100000E-01
     1        101     1     2  0.101000E+01  0.101000E+01  0.100000E-01
     1        101     2     2  0.101000E+01  0.101000E+01  0.100000E-01
     1        102     1     2  0.102000E+01  0.102000E+01  0.100000E-01
     1        102     2     2  0.102000E+01  0.102000E+01  0.100000E-01
     1        103     1     2  0.103000E+01  0.103000E+01  0.100000E-01
     1        103     2     2  0.103000E+01  0.103000E+01  0.100000E-01
     1        103     2     2  0.103000E+01  0.103000E+01  0.100000E-01
     1        104     1     2  0.104000E+01  0.104000E+01  0.100000E-01
     1        104     2     2  0.104000E+01  0.104000E+01  0.100000E-01
     1        104     2     2  0.104000E+01  0.104000E+01  0.100000E-01
     1        105     1     2  0.105000E+01  0.105000E+01  0.100000E-01
     1        105     2     2  0.105000E+01  0.105000E+01  0.100000E-01
     1        106     1     2  0.106000E+01  0.106000E+01  0.100000E-01
     1        106     2     2  0.106000E+01  0.106000E+01  0.100000E-01
     1        107     1     2  0.107000E+01  0.107000E+01  0.100000E-01
     1        107     2     2  0.107000E+01  0.107000E+01  0.100000E-01
     1        108     1     2  0.108000E+01  0.108000E+01  0.100000E-01
     1        108     2     2  0.108000E+01  0.108000E+01  0.100000E-01
     1        109     1     2  0.109000E+01  0.109000E+01  0.100000E-01
     1        109     2     2  0.109000E+01  0.109000E+01  0.100000E-01
     1        109     2     2  0.109000E+01  0.109000E+01  0.100000E-01
     1        110     1     2  0.110000E+01  0.110000E+01  0.100000E-01
     1        110     2     2  0.110000E+01  0.110000E+01  0.100000E-01
     1        111     1     2  0.111000E+01  0.111000E+01  0.100000E-01
     1        111     2     2  0.111000E+01  0.111000E+01  0.100000E-01
     1        112     1     2  0.112000E+01  0.112000E+01  0.100000E-01
     1        112     2     2  0.112000E+01  0.112000E+01  0.100000E-01
     1        113     1     2  0.113000E+01  0.113000E+01  0.100000E-01
     1        113     2     2  0.113000E+01  0.113000E+01  0.100000E-01
     1        114     1     2  0.114000E+01  0.114000E+01  0.100000E-01
     1        114     2     2  0.114000E+01  0.114000E+01  0.100000E-01
     1        115     1     2  0.115000E+01  0.115000E+01  0.100000E-01
     1        115     2     2  0.115000E+01  0.115000E+01  0.100000E-01
     1        116     1     2  0.116000E+01  0.116000E+01  0.100000E-01
     1        116     2     2  0.116000E+01  0.116000E+01  0.100000E-01
     1        117     1     2  0.117000E+01  0.117000E+01  0.100000E-01
     1        117     2     2  0.117000E+01  0.117000E+01  0.100000E-01
     1        118     1     2  0.118000E+01  0.118000E+01  0.100000E-01
     1        118     2     2  0.118000E+01  0.118000E+01  0.100000E-01
     1        119     1     2  0.119000E+01  0.119000E+01  0.100000E-01
     1        119     2     2  0.119000E+01  0.119000E+01  0.100000E-01
     1        119     2     2  0.119000E+01  0.119000E+01  0.100000E-01
     1        120     1     2  0.120000E+01  0.120000E+01  0.100000E-01
     1        120     2     2  0.120000E+01  0.120000E+01  0.100000E-01
     1        120     2     2  0.120000E+01  0.120000E+01  0.100000E-01
     1        121     1     2  0.121000E+01  0.121000E+01  0.100000E-01
     1        121     2     2  0.121000E+01  0.121000E+01  0.100000E-01
     1        122     1     2  0.122000E+01  0.122000E+01  0.100000E-01
     1        122     2     2  0.122000E+01  0.122000E+01  0.100000E-01
     1        122     2     2  0.122000E+01  0.122000E+01  0.100000E-01
     1        123     1     2  0.123000E+01  0.123000E+01  0.100000E-01
     1        123     2     2  0.123000E+01  0.123000E+01  0.100000E-01
     1        124     1     2  0.124000E+01  0.124000E+01  0.100000E-01
     1        124     2     2  0.124000E+01  0.124000E+01  0.100000E-01
     1        125     1     2  0.125000E+01  0.125000E+01  0.100000E-01
     1        125     2     2  0.125000E+01  0.125000E+01  0.100000E-01
     1        126     1     2  0.126000E+01  0.126000E+01  0.100000E-01
     1        126     2     2  0.126000E+01  0.126000E+01  0.100000E-01
     1        126     2     2  0.126000E+01  0.126000E+01  0.100000E-01
     1        127     1     2  0.127000E+01  0.127000E+01  0.100000E-01
     1        127     2     2  0.127000E+01  0.127000E+01  0.100000E-01
     1        128     1     2  0.128000E+01  0.128000E+01  0.100000E-01
     1        128     2     2  0.128000E+01  0.128000E+01  0.100000E-01
     1        129     1     2  0.129000E+01  0.129000E+01  0.100000E-01
     1        129     2     2  0.129000E+01  0.129000E+01  0.100000E-01
     1        130     1     2  0.130000E+01  0.130000E+01  0.100000E-01
     1        130     2     2  0.130000E+01  0.130000E+01  0.100000E-01
     1        131     1     2  0.131000E+01  0.131000E+01  0.100000E-01
     1        131     2     2  0.131000E+01  0.131000E+01  0.100000E-01
     1        132     1     2  0.132000E+01  0.132000E+01  0.100000E-01
     1        132     2     2  0.132000E+01  0.132000E+01  0.100000E-01
     1        133     1     2  0.133000E+01  0.133000E+01  0.100000E-01
     1        133     2     2  0.133000E+01  0.133000E+01  0.100000E-01
     1        134     1     2  0.134000E+01  0.134000E+01  0.100000E-01
     1        134     2     2  0.134000E+01  0.134000E+01  0.100000E-01
     1        135     1     2  0.135000E+01  0.135000E+01  0.100000E-01
     1        135     2     2  0.135000E+01  0.135000E+01  0.100000E-01
     1        135     2     2  0.135000E+01  0.135000E+01  0.100000E-01
     1        136     1     2  0.136000E+01  0.136000E+01  0.100000E-01
     1        136     2     2  0.136000E+01  0.136000E+01  0.100000E-01
     1        137     1     2  0.137000E+01  0.137000E+01  0.100000E-01
     1        137     2     2  0.137000E+01  0.137000E+01  0.100000E-01
     1        138     1     2  0.138000E+01  0.138000E+01  0.100000E-01
     1        138     2     2  0.138000E+01  0.138000E+01  0.100000E-01
     1        139     1     2  0.139000E+01  0.139000E+01  0.100000E-01
     1        139     2     2  0.139000E+01  0.139000E+01  0.100000E-01
     1        140     1     2  0.140000E+01  0.140000E+01  0.100000E-01
     1        140     2     2  0.140000E+01  0.140000E+01  0.100000E-01
     1        140     2     2  0.140000E+01  0.140000E+01  0.100000E-01
     1        141     1     2  0.141000E+01  0.141000E+01  0.100000E-01
     1        141     2     2  0.141000E+01  0.141000E+01  0.100000E-01
     1        141     2     2  0.141000E+01  0.141000E+01  0.100000E-01
     1        142     1     2  0.142000E+01  0.142000E+01  0.100000E-01
     1        142     2     2  0.142000E+01  0.142000E+01  0.100000E-01
     1        142     2     2  0.142000E+01  0.142000E+01  0.100000E-01
     1        143     1     2  0.143000E+01  0.143000E+01  0.100000E-01
     1        143     2     2  0.143000E+01  0.143000E+01  0.100000E-01
     1        144     1     2  0.144000E+01  0.144000E+01  0.100000E-01
     1        144     2     2  0.144000E+01  0.144000E+01  0.100000E-01
     1        145     1     2  0.145000E+01  0.145000E+01  0.100000E-01
     1        145     2     2  0.145000E+01  0.145000E+01  0.100000E-01
     1        146     1     2  0.146000E+01  0.146000E+01  0.100000E-01
     1        146     2     2  0.146000E+01  0.146000E+01  0.100000E-01
     1        147     1     2  0.147000E+01  0.147000E+01  0.100000E-01
     1        147     2     2  0.147000E+01  0.147000E+01  0.100000E-01
     1        147     2     2  0.147000E+01  0.147000E+01  0.100000E-01
     1        148     1     2  0.148000E+01  0.148000E+01  0.100000E-01
     1        148     2     2  0.148000E+01  0.148000E+01  0.100000E-01
     1        148     2     2  0.148000E+01  0.148000E+01  0.100000E-01
     1        149     1     2  0.149000E+01  0.149000E+01  0.100000E-01
     1        149     2     2  0.149000E+01  0.149000E+01  0.100000E-01
     1        150     1     2  0.150000E+01  0.150000E+01  0.100000E-01
     1        150     2     2  0.150000E+01  0.150000E+01  0.100000E-01
     1        151     1     2  0.151000E+01  0.151000E+01  0.100000E-01
     1        151     2     2  0.151000E+01  0.151000E+01  0.100000E-01
     1        152     1     2  0.152000E+01  0.152000E+01  0.100000E-01
     1        152     2     2  0.152000E+01  0.152000E+01  0.100000E-01
     1        152     2     2  0.152000E+01  0.152000E+01  0.100000E-01
     1        153     1     2  0.153000E+01  0.153000E+01  0.100000E-01
     1        153     2     2  0.153000E+01  0.153000E+01  0.100000E-01
     1        153     2     2  0.153000E+01  0.153000E+01  0.100000E-01
     1        154     1     2  0.154000E+01  0.154000E+01  0.100000E-01
     1        154     2     2  0.154000E+01  0.154000E+01  0.100000E-01
     1        154     2     2  0.154000E+01  0.154000E+01  0.100000E-01
     1        155     1     2  0.155000E+01  0.155000E+01  0.100000E-01
     1        155     2     2  0.155000E+01  0.155000E+01  0.100000E-01
     1        156     1     2  0.156000E+01  0.156000E+01  0.100000E-01
     1        156     2     2  0.156000E+01  0.156000E+01  0.100000E-01
     1        157     1     2  0.157000E+01  0.157000E+01  0.100000E-01
     1        157     2     2  0.157000E+01  0.157000E+01  0.100000E-01
     1        158     1     2  0.158000E+01  0.158000E+01  0.100000E-01
     1        158     2     2  0.158000E+01  0.158000E+01  0.100000E-01
     1        159     1     2  0.159000E+01  0.159000E+01  0.100000E-01
     1        159     2     2  0.159000E+01  0.159000E+01  0.100000E-01
     1        160     1     2  0.160000E+01  0.160000E+01  0.100000E-01
     1        160     2     2  0.160000E+01  0.160000E+01  0.100000E-01
     1        161     1     2  0.161000E+01  0.161000E+01  0.100000E-01
     1        161     2     2  0.161000E+01  0.161000E+01  0.100000E-01
     1        161     2     2  0.161000E+01  0.161000E+01  0.100000E-01
     1        162     1     2  0.162000E+01  0.162000E+01  0.100000E-01
     1        162     2     2  0.162000E+01  0.162000E+01  0.100000E-01
     1        163     1     2  0.163000E+01  0.163000E+01  0.100000E-01
     1        163     2     2  0.163000E+01  0.163000E+01  0.100000E-01
     1        163     2     2  0.163000E+01  0.163000E+01  0.100000E-01
     1        164     1     2  0.164000E+01  0.164000E+01  0.100000E-01
     1        164     2     2  0.164000E+01  0.164000E+01  0.100000E-01
     1        165     1     2  0.165000E+01  0.165000E+01  0.100000E-01
     1        165     2     2  0.165000E+01  0.165000E+01  0.100000E-01
     1        165     2     2  0.165000E+01  0.165000E+01  0.100000E-01
     1        166     1     2  0.166000E+01  0.166000E+01  0.100000E-01
     1        166     2     2  0.166000E+01  0.166000E+01  0.100000E-01
     1        167     1     2  0.167000E+01  0.167000E+01  0.100000E-01
     1        167     2     2  0.167000E+01  0.167000E+01  0.100000E-01
     1        168     1     2  0.168000E+01  0.168000E+01  0.100000E-01
     1        168     2     2  0.168000E+01  0.168000E+01  0.100000E-01
     1        169     1     2  0.169000E+01  0.169000E+01  0.100000E-01
     1        169     2     2  0.169000E+01  0.169000E+01  0.100000E-01
     1        170     1     2  0.170000E+01  0.170000E+01  0.100000E-01
     1        170     2     2  0.170000E+01  0.170000E+01  0.100000E-01
     1        170     2     2  0.170000E+01  0.170000E+01  0.100000E-01
     1        171     1     2  0.171000E+01  0.171000E+01  0.100000E-01
     1        171     2     2  0.171000E+01  0.171000E+01  0.100000E-01
     1        171     2     2  0.171000E+01  0.171000E+01  0.100000E-01
     1        172     1     2  0.172000E+01  0.172000E+01  0.100000E-01
     1        172     2     2  0.172000E+01  0.172000E+01  0.100000E-01
     1        173     1     2  0.173000E+01  0.173000E+01  0.100000E-01
     1        173     2     2  0.173000E+01  0.173000E+01  0.100000E-01
     1        174     1     2  0.174000E+01  0.174000E+01  0.100000E-01
     1        174     2     2  0.174000E+01  0.174000E+01  0.100000E-01
     1        174     2     2  0.174000E+01  0.174000E+01  0.100000E-01
     1        175     1     2  0.175000E+01  0.175000E+01  0.100000E-01
     1        175     2     2  0.175000E+01  0.175000E+01  0.100000E-01
     1        176     1     2  0.176000E+01  0.176000E+01  0.100000E-01
     1        176     2     2  0.176000E+01  0.176000E+01  0.100000E-01
     1        177     1     2  0.177000E+01  0.177000E+01  0.100000E-01
     1        177     2     2  0.177000E+01  0.177000E+01  0.100000E-01
     1        178     1     2  0.178000E+01  0.178000E+01  0.100000E-01
     1        178     2     2  0.178000E+01  0.178000E+01  0.100000E-01
     1        178     2     2  0.178000E+01  0.178000E+01  0.100000E-01
     1        179     1     2  0.179000E+01  0.179000E+01  0.100000E-01
     1        179     2     2  0.179000E+01  0.179000E+01  0.100000E-01
     1        180     1     2  0.180000E+01  0.180000E+01  0.100000E-01
     1        180     2     2  0.180000E+01  0.180000E+01  0.100000E-01
     1        181     1     2  0.181000E+01  0.181000E+01  0.100000E-01
     1        181     2     2  0.181000E+01  0.181000E+01  0.100000E-01
     1        181     2     2  0.181000E+01  0.181000E+01  0.100000E-01
     1        182     1     2  0.182000E+01  0.182000E+01  0.100000E-01
     1        182     2     2  0.182000E+01  0.182000E+01  0.100000E-01
     1        182     2     2  0.182000E+01  0.182000E+01  0.100000E-01
     1        183     1     2  0.183000E+01  0.183000E+01  0.100000E-01
     1        183     2     2  0.183000E+01  0.183000E+01  0.100000E-01
     1        184     1     2  0.184000E+01  0.184000E+01  0.100000E-01
     1        184     2     2  0.184000E+01  0.184000E+01  0.100000E-01
     1        185     1     2  0.185000E+01  0.185000E+01  0.100000E-01
     1        185     2     2  0.185000E+01  0.185000E+01  0.100000E-01
     1        186     1     2  0.186000E+01  0.186000E+01  0.100000E-01
     1        186     2     2  0.186000E+01  0.186000E+01  0.100000E-01
     1        187     1     2  0.187000E+01  0.187000E+01  0.100000E-01
     1        187     2     2  0.187000E+01  0.187000E+01  0.100000E-01
     1        188     1     2  0.188000E+01  0.188000E+01  0.100000E-01
     1        188     2     2  0.188000E+01  0.188000E+01  0.100000E-01
     1        189     1     2  0.189000E+01  0.189000E+01  0.100000E-01
     1        189     2     2  0.189000E+01  0.189000E+01  0.100000E-01
     1        189     2     2  0.189000E+01  0.189000E+01  0.100000E-01
     1        189     2     2  0.189000E+01  0.189000E+01  0.100000E-01
     1        190     1     2  0.190000E+01  0.190000E+01  0.100000E-01
     1        190     2     2  0.190000E+01  0.190000E+01  0.100000E-01
     1        191     1     2  0.191000E+01  0.191000E+01  0.100000E-01
     1        191     2     2  0.191000E+01  0.191000E+01  0.100000E-01
     1        192     1     2  0.192000E+01  0.192000E+01  0.100000E-01
     1        192     2     2  0.192000E+01  0.192000E+01  0.100000E-01
     1        193     1     2  0.193000E+01  0.193000E+01  0.100000E-01
     1        193     2     2  0.193000E+01  0.193000E+01  0.100000E-01
     1        194     1     2  0.194000E+01  0.194000E+01  0.100000E-01
     1        194     2     2  0.194000E+01  0.194000E+01  0.100000E-01
     1        195     1     2  0.195000E+01  0.195000E+01  0.100000E-01
     1        195     2     2  0.195000E+01  0.195000E+01  0.100000E-01
     1        196     1     2  0.196000E+01  0.196000E+01  0.100000E-01
     1        196     2     2  0.196000E+01  0.196000E+01  0.100000E-01
     1        197     1     2  0.197000E+01  0.197000E+01  0.100000E-01
     1        197     2     2  0.197000E+01  0.197000E+01  0.100000E-01
     1        197     2     2  0.197000E+01  0.197000E+01  0.100000E-01
     1        198     1     2  0.198000E+01  0.198000E+01  0.100000E-01
     1        198     2     2  0.198000E+01  0.198000E+01  0.100000E-01
     1        199     1     2  0.199000E+01  0.199000E+01  0.100000E-01
     1        199     2     2  0.199000E+01  0.199000E+01  0.100000E-01
     1        200     1     2  0.200000E+01  0.200000E+01  0.100000E-01
     1        200     2     2  0.200000E+01  0.200000E+01  0.100000E-01
     1        201     1     2  0.201000E+01  0.201000E+01  0.100000E-01
     1        201     2     2  0.201000E+01  0.201000E+01  0.100000E-01
     1        201     2     2  0.201000E+01  0.201000E+01  0.100000E-01
     1        202     1     2  0.202000E+01  0.202000E+01  0.100000E-01
     1        202     2     2  0.202000E+01  0.202000E+01  0.100000E-01
     1        203     1     2  0.203000E+01  0.203000E+01  0.100000E-01
     1        203     2     2  0.203000E+01  0.203000E+01  0.100000E-01
     1        204     1     2  0.204000E+01  0.204000E+01  0.100000E-01
     1        204     2     2  0.204000E+01  0.204000E+01  0.100000E-01
     1        205     1     2  0.205000E+01  0.205000E+01  0.100000E-01
     1        205     2     2  0.205000E+01  0.205000E+01  0.100000E-01
     1        205     2     2  0.205000E+01  0.205000E+01  0.100000E-01
     1        206     1     2  0.206000E+01  0.206000E+01  0.100000E-01
     1        206     2     2  0.206000E+01  0.206000E+01  0.100000E-01
     1        207     1     2  0.207000E+01  0.207000E+01  0.100000E-01
     1        207     2     2  0.207000E+01  0.207000E+01  0.100000E-01
     1        208     1     2  0.208000E+01  0.208000E+01  0.100000E-01
     1        208     2     2  0.208000E+01  0.208000E+01  0.100000E-01
     1        209     1     2  0.209000E+01  0.209000E+01  0.100000E-01
     1        209     2     2  0.209000E+01  0.209000E+01  0.100000E-01
     1        210     1     2  0.210000E+01  0.210000E+01  0.100000E-01
     1        210     2     2  0.210000E+01  0.210000E+01  0.100000E-01
     1        211     1     2  0.211000E+01  0.211000E+01  0.100000E-01
     1        211     2     2  0.211000E+01  0.211000E+01  0.100000E-01
     1        211     2     2  0.211000E+01  0.211000E+01  0.100000E-01
     1        212     1     2  0.212000E+01  0.212000E+01  0.100000E-01
     1        212     2     2  0.212000E+01  0.212000E+01  0.100000E-01
     1        213     1     2  0.213000E+01  0.213000E+01  0.100000E-01
     1        213     2     2  0.213000E+01  0.213000E+01  0.100000E-01
     1        214     1     2  0.214000E+01  0.214000E+01  0.100000E-01
     1        214     2     2  0.214000E+01  0.214000E+01  0.100000E-01
     1        215     1     2  0.215000E+01  0.215000E+01  0.100000E-01
     1        215     2     2  0.215000E+01  0.215000E+01  0.100000E-01
     1        216     1     2  0.216000E+01  0.216000E+01  0.100000E-01
     1        216     2     2  0.216000E+01  0.216000E+01  0.100000E-01
     1        217     1     2  0.217000E+01  0.217000E+01  0.100000E-01
     1        217     2     2  0.217000E+01  0.217000E+01  0.100000E-01
     1        218     1     2  0.218000E+01  0.218000E+01  0.100000E-01
     1        218     2     2  0.218000E+01  0.218000E+01  0.100000E-01
     1        219     1     2  0.219000E+01  0.219000E+01  0.100000E-01
     1        219     2     2  0.219000E+01  0.219000E+01  0.100000E-01
     1        220     1     2  0.220000E+01  0.220000E+01  0.100000E-01
     1        220     2     2  0.220000E+01  0.220000E+01  0.100000E-01
     1        221     1     2  0.221000E+01  0.221000E+01  0.100000E-01
     1        221     2     2  0.221000E+01  0.221000E+01  0.100000E-01
     1        222     1     2  0.222000E+01  0.222000E+01  0.100000E-01
     1        222     2     2  0.222000E+01  0.222000E+01  0.100000E-01
     1        223     1     2  0.223000E+01  0.223000E+01  0.100000E-01
     1        223     2     2  0.223000E+01  0.223000E+01  0.100000E-01
     1        224     1     2  0.224000E+01  0.224000E+01  0.100000E-01
     1        224     2     2  0.224000E+01  0.224000E+01  0.100000E-01
     1        224     2     2  0.224000E+01  0.224000E+01  0.100000E-01
     1        225     1     2  0.225000E+01  0.225000E+01  0.100000E-01
     1        225     2     2  0.225000E+01  0.225000E+01  0.100000E-01
     1        226     1     2  0.226000E+01  0.226000E+01  0.100000E-01
     1        226     2     2  0.226000E+01  0.226000E+01  0.100000E-01
     1        227     1     2  0.227000E+01  0.227000E+01  0.100000E-01
     1        227     2     2  0.227000E+01  0.227000E+01  0.100000E-01
     1        228     1     2  0.228000E+01  0.228000E+01  0.100000E-01
     1        228     2     2  0.228000E+01  0.228000E+01  0.100000E-01
     1        229     1     2  0.229000E+01  0.229000E+01  0.100000E-01
     1        229     2     2  0.229000E+01  0.229000E+01  0.100000E-01
     1        229     2     2  0.229000E+01  0.229000E+01  0.100000E-01
     1        230     1     2  0.230000E+01  0.230000E+01  0.100000E-01
     1        230     2     2  0.230000E+01  0.230000E+01  0.100000E-01
     1        231     1     2  0.231000E+01  0.231000E+01  0.100000E-01
     1        231     2     2  0.231000E+01  0.231000E+01  0.100000E-01
     1        232     1     2  0.232000E+01  0.232000E+01  0.100000E-01
     1        232     2     2  0.232000E+01  0.232000E+01  0.100000E-01
     1        233     1     2  0.233000E+01  0.233000E+01  0.100000E-01
     1        233     2     2  0.233000E+01  0.233000E+01  0.100000E-01
     1        234     1     2  0.234000E+01  0.234000E+01  0.100000E-01
     1        234     2     2  0.234000E+01  0.234000E+01  0.100000E-01
     1        235     1     2  0.235000E+01  0.235000E+01  0.100000E-01
     1        235     2     2  0.235000E+01  0.235000E+01  0.100000E-01
     1        236     1     2  0.236000E+01  0.236000E+01  0.100000E-01
     1        236     2     2  0.236000E+01  0.236000E+01  0.100000E-01
     1        236     2     2  0.236000E+01  0.236000E+01  0.100000E-01
     1        237     1     2  0.237000E+01  0.237000E+01  0.100000E-01
     1        237     2     2  0.237000E+01  0.237000E+01  0.100000E-01
     1        237     2     2  0.237000E+01  0.237000E+01  0.100000E-01
     1        238     1     2  0.238000E+01  0.238000E+01  0.100000E-01
     1        238     2     2  0.238000E+01  0.238000E+01  0.100000E-01
     1        239     1     2  0.239000E+01  0.239000E+01  0.100000E-01
     1        239     2     2  0.239000E+01  0.239000E+01  0.100000E-01
     1        240     1     2  0.240000E+01  0.240000E+01  0.100000E-01
     1        240     2     2  0.240000E+01  0.240000E+01  0.100000E-01
     1        241     1     2  0.241000E+01  0.241000E+01  0.100000E-01
     1        241     2     2  0.241000E+01  0.241000E+01  0.100000E-01
     1        242     1     2  0.242000E+01  0.242000E+01  0.100000E-01
     1        242     2     2  0.242000E+01  0.242000E+01  0.100000E-01
     1        243     1     2  0.243000E+01  0.243000E+01  0.100000E-01
     1        243     2     2  0.243000E+01  0.243000E+01  0.100000E-01
     1        244     1     2  0.244000E+01  0.244000E+01  0.100000E-01
     1        244     2     2  0.244000E+01  0.244000E+01  0.100000E-01
     1        245     1     2  0.245000E+01  0.245000E+01  0.100000E-01
     1        245     2     2  0.245000E+01  0.245000E+01  0.100000E-01
     1        246     1     2  0.246000E+01  0.246000E+01  0.100000E-01
     1        246     2     2  0.246000E+01  0.246000E+01  0.100000E-01
     1        247     1     2  0.247000E+01  0.247000E+01  0.100000E-01
     1        247     2     2  0.247000E+01  0.247000E+01  0.100000E-01
     1        248     1     2  0.248000E+01  0.248000E+01  0.100000E-01
     1        248     2     2  0.248000E+01  0.248000E+01  0.100000E-01
     1        249     1     2  0.249000E+01  0.249000E+01  0.100000E-01
     1        249     2     2  0.249000E+01  0.249000E+01  0.100000E-01
     1        250     1     2  0.250000E+01  0.250000E+01  0.100000E-01
     1        250     2     2  0.250000E+01  0.250000E+01  0.100000E-01
     1        251     1     2  0.251000E+01  0.251000E+01  0.100000E-01
     1        251     2     2  0.251000E+01  0.251000E+01  0.100000E-01
     1        252     1     2  0.252000E+01  0.252000E+01  0.100000E-01
     1        252     2     2  0.252000E+01  0.252000E+01  0.100000E-01
     1        253     1     2  0.253000E+01  0.253000E+01  0.100000E-01
     1        253     2     2  0.253000E+01  0.253000E+01  0.100000E-01
     1        254     1     2  0.254000E+01  0.254000E+01  0.100000E-01
     1        254     2     2  0.254000E+01  0.254000E+01  0.100000E-01
     1        255     1     2  0.255000E+01  0.255000E+01  0.100000E-01
     1        255     2     2  0.255000E+01  0.255000E+01  0.100000E-01
     1        256     1     2  0.256000E+01  0.256000E+01  0.100000E-01
     1        256     2     2  0.256000E+01  0.256000E+01  0.100000E-01
     1        257     1     2  0.257000E+01  0.257000E+01  0.100000E-01
     1        257     2     2  0.257000E+01  0.257000E+01  0.100000E-01
     1        258     1     2  0.258000E+01  0.258000E+01  0.100000E-01
     1        258     2     2  0.258000E+01  0.258000E+01  0.100000E-01
     1        259     1     2  0.259000E+01  0.259000E+01  0.100000E-01
     1        259     2     2  0.259000E+01  0.259000E+01  0.100000E-01
     1        260     1     2  0.260000E+01  0.260000E+01  0.100000E-01
     1        260     2     2  0.260000E+01  0.260000E+01  0.100000E-01
     1        261     1     2  0.261000E+01  0.261000E+01  0.100000E-01
     1        261     2     2  0.261000E+01  0.261000E+01  0.100000E-01
     1        262     1     2  0.262000E+01  0.262000E+01  0.100000E-01
     1        262     2     2  0.262000E+01  0.262000E+01  0.100000E-01
     1        263     1     2  0.263000E+01  0.263000E+01  0.100000E-01
     1        263     2     2  0.263000E+01  0.263000E+01  0.100000E-01
     1        264     1     2  0.264000E+01  0.264000E+01  0.100000E-01
     1        264     2     2  0.264000E+01  0.264000E+01  0.100000E-01
     1        265     1     2  0.265000E+01  0.265000E+01  0.100000E-01
     1        265     2     2  0.265000E+01  0.265000E+01  0.100000E-01
     1        266     1     2  0.266000E+01  0.266000E+01  0.100000E-01
     1        266     2     2  0.266000E+01  0.266000E+01  0.100000E-01
     1        267     1     2  0.267000E+01  0.267000E+01  0.100000E-01
     1        267     2     2  0.267000E+01  0.267000E+01  0.100000E-01
     1        268     1     2  0.268000E+01  0.268000E+01  0.100000E-01
     1        268     2     2  0.268000E+01  0.268000E+01  0.100000E-01
     1        269     1     2  0.269000E+01  0.269000E+01  0.100000E-01
     1        269     2     2  0.269000E+01  0.269000E+01  0.100000E-01
     1        270     1     2  0.270000E+01  0.270000E+01  0.100000E-01
     1        270     2     2  0.270000E+01  0.270000E+01  0.100000E-01
     1        271     1     2  0.271000E+01  0.271000E+01  0.100000E-01
     1        271     2     2  0.271000E+01  0.271000E+01  0.100000E-01
     1        272     1     2  0.272000E+01  0.272000E+01  0.100000E-01
     1        272     2     2  0.272000E+01  0.272000E+01  0.100000E-01
     1        273     1     2  0.273000E+01  0.273000E+01  0.100000E-01
     1        273     2     2  0.273000E+01  0.273000E+01  0.100000E-01
     1        274     1     2  0.274000E+01  0.274000E+01  0.100000E-01
     1        274     2     2  0.274000E+01  0.274000E+01  0.100000E-01
     1        275     1     2  0.275000E+01  0.275000E+01  0.100000E-01
     1        275     2     2  0.275000E+01  0.275000E+01  0.100000E-01
     1        276     1     2  0.276000E+01  0.276000E+01  0.100000E-01
     1        276     2     2  0.276000E+01  0.276000E+01  0.100000E-01
     1        276     2     2  0.276000E+01  0.276000E+01  0.100000E-01
     1        277     1     2  0.277000E+01  0.277000E+01  0.100000E-01
     1        277     2     2  0.277000E+01  0.277000E+01  0.100000E-01
     1        278     1     2  0.278000E+01  0.278000E+01  0.100000E-01
     1        278     2     2  0.278000E+01  0.278000E+01  0.100000E-01
     1        279     1     2  0.279000E+01  0.279000E+01  0.100000E-01
     1        279     2     2  0.279000E+01  0.279000E+01  0.100000E-01
     1        280     1     2  0.280000E+01  0.280000E+01  0.100000E-01
     1        280     2     2  0.280000E+01  0.280000E+01  0.100000E-01
     1        281     1     2  0.281000E+01  0.281000E+01  0.100000E-01
     1        281     2     2  0.281000E+01  0.281000E+01  0.100000E-01
     1        282     1     2  0.282000E+01  0.282000E+01  0.100000E-01
     1        282     2     2  0.282000E+01  0.282000E+01  0.100000E-01
     1        283     1     2  0.283000E+01  0.283000E+01  0.100000E-01
     1        283     2     2  0.283000E+01  0.283000E+01  0.100000E-01
     1        284     1     2  0.284000E+01  0.284000E+01  0.100000E-01
     1        284     2     2  0.284000E+01  0.284000E+01  0.100000E-01
     1        285     1     2  0.285000E+01  0.285000E+01  0.100000E-01
     1        285     2     2  0.285000E+01  0.285000E+01  0.100000E-01
     1        286     1     2  0.286000E+01  0.286000E+01  0.100000E-01
     1        286     2     2  0.286000E+01  0.286000E+01  0.100000E-01
     1        287     1     2  0.287000E+01  0.287000E+01  0.100000E-01
     1        287     2     2  0.287000E+01  0.287000E+01  0.100000E-01
     1        287     2     2  0.287000E+01  0.287000E+01  0.100000E-01
     1        288     1     2  0.288000E+01  0.288000E+01  0.100000E-01
     1        288     2     2  0.288000E+01  0.288000E+01  0.100000E-01
     1        289     1     2  0.289000E+01  0.289000E+01  0.100000E-01
     1        289     2     2  0.289000E+01  0.289000E+01  0.100000E-01
     1        290     1     2  0.290000E+01  0.290000E+01  0.100000E-01
     1        290     2     2  0.290000E+01  0.290000E+01  0.100000E-01
     1        291     1     2  0.291000E+01  0.291000E+01  0.100000E-01
     1        291     2     2  0.291000E+01  0.291000E+01  0.100000E-01
     1        291     2     2  0.291000E+01  0.291000E+01  0.100000E-01
     1        292     1     2  0.292000E+01  0.292000E+01  0.100000E-01
     1        292     2     2  0.292000E+01  0.292000E+01  0.100000E-01
     1        293     1     2  0.293000E+01  0.293000E+01  0.100000E-01
     1        293     2     2  0.293000E+01  0.293000E+01  0.100000E-01
     1        294     1     2  0.294000E+01  0.294000E+01  0.100000E-01
     1        294     2     2  0.294000E+01  0.294000E+01  0.100000E-01
     1        295     1     2  0.295000E+01  0.295000E+01  0.100000E-01
     1        295     2     2  0.295000E+01  0.295000E+01  0.100000E-01
     1        296     1     2  0.296000E+01  0.296000E+01  0.100000E-01
     1        296     2     2  0.296000E+01  0.296000E+01  0.100000E-01
     1        297     1     2  0.297000E+01  0.297000E+01  0.100000E-01
     1        297     2     2  0.297000E+01  0.297000E+01  0.100000E-01
     1        298     1     2  0.298000E+01  0.298000E+01  0.100000E-01
     1        298     2     2  0.298000E+01  0.298000E+01  0.100000E-01
     1        299     1     2  0.299000E+01  0.299000E+01  0.100000E-01
     1        299     2     2  0.299000E+01  0.299000E+01  0.100000E-01
     1        300     1     2  0.300000E+01  0.300000E+01  0.100000E-01
     1        300     2     2  0.300000E+01  0.300000E+01  0.100000E-01
     1        301     1     2  0.301000E+01  0.301000E+01  0.100000E-01
     1        301     2     2  0.301000E+01  0.301000E+01  0.100000E-01
     1        302     1     2  0.302000E+01  0.302000E+01  0.100000E-01
     1        302     2     2  0.302000E+01  0.302000E+01  0.100000E-01
     1        303     1     2  0.303000E+01  0.303000E+01  0.100000E-01
     1        303     2     2  0.303000E+01  0.303000E+01  0.100000E-01
     1        304     1     2  0.304000E+01  0.304000E+01  0.100000E-01
     1        304     2     2  0.304000E+01  0.304000E+01  0.100000E-01
     1        305     1     2  0.305000E+01  0.305000E+01  0.100000E-01
     1        305     2     2  0.305000E+01  0.305000E+01  0.100000E-01
     1        306     1     2  0.306000E+01  0.306000E+01  0.100000E-01
     1        306     2     2  0.306000E+01  0.306000E+01  0.100000E-01
     1        307     1     2  0.307000E+01  0.307000E+01  0.100000E-01
     1        307     2     2  0.307000E+01  0.307000E+01  0.100000E-01
     1        308     1     2  0.308000E+01  0.308000E+01  0.100000E-01
     1        308     2     2  0.308000E+01  0.308000E+01  0.100000E-01
     1        309     1     2  0.309000E+01  0.309000E+01  0.100000E-01
     1        309     2     2  0.309000E+01  0.309000E+01  0.100000E-01
     1        310     1     2  0.310000E+01  0.310000E+01  0.100000E-01
     1        310     2     2  0.310000E+01  0.310000E+01  0.100000E-01
     1        311     1     2  0.311000E+01  0.311000E+01  0.100000E-01
     1        311     2     2  0.311000E+01  0.311000E+01  0.100000E-01
     1        312     1     2  0.312000E+01  0.312000E+01  0.100000E-01
     1        312     2     2  0.312000E+01  0.312000E+01  0.100000E-01
     1        313     1     2  0.313000E+01  0.313000E+01  0.100000E-01
     1        313     2     2  0.313000E+01  0.313000E+01  0.100000E-01
     1        314     1     2  0.314000E+01  0.314000E+01  0.100000E-01
     1        314     2     2  0.314000E+01  0.314000E+01  0.100000E-01
     1        315     1     2  0.315000E+01  0.315000E+01  0.100000E-01
     1        315     2     2  0.315000E+01  0.315000E+01  0.100000E-01
     1        316     1     2  0.316000E+01  0.316000E+01  0.100000E-01
     1        316     2     2  0.316000E+01  0.316000E+01  0.100000E-01
     1        317     1     2  0.317000E+01  0.317000E+01  0.100000E-01
     1        317     2     2  0.317000E+01  0.317000E+01  0.100000E-01
     1        318     1     2  0.318000E+01  0.318000E+01  0.100000E-01
     1        318     2     2  0.318000E+01  0.318000E+01  0.100000E-01
     1        319     1     2  0.319000E+01  0.319000E+01  0.100000E-01
     1        319     2     2  0.319000E+01  0.319000E+01  0.100000E-01
     1        320     1     2  0.320000E+01  0.320000E+01  0.100000E-01
     1        320     2     2  0.320000E+01  0.320000E+01  0.100000E-01
     1        321     1     2  0.321000E+01  0.321000E+01  0.100000E-01
     1        321     2     2  0.321000E+01  0.321000E+01  0.100000E-01
     1        322     1     2  0.322000E+01  0.322000E+01  0.100000E-01
     1        322     2     2  0.322000E+01  0.322000E+01  0.100000E-01
     1        323     1     2  0.323000E+01  0.323000E+01  0.100000E-01
     1        323     2     2  0.323000E+01  0.323000E+01  0.100000E-01
     1        324     1     2  0.324000E+01  0.324000E+01  0.100000E-01
     1        324     2     2  0.324000E+01  0.324000E+01  0.100000E-01
     1        325     1     2  0.325000E+01  0.325000E+01  0.100000E-01
     1        325     2     2  0.325000E+01  0.325000E+01  0.100000E-01
     1        326     1     2  0.326000E+01  0.326000E+01  0.100000E-01
     1        326     2     2  0.326000E+01  0.326000E+01  0.100000E-01
     1        327     1     2  0.327000E+01  0.327000E+01  0.100000E-01
     1        327     2     2  0.327000E+01  0.327000E+01  0.100000E-01
     1        328     1     2  0.328000E+01  0.328000E+01  0.100000E-01
     1        328     2     2  0.328000E+01  0.328000E+01  0.100000E-01
     1        329     1     2  0.329000E+01  0.329000E+01  0.100000E-01
     1        329     2     2  0.329000E+01  0.329000E+01  0.100000E-01
     1        330     1     2  0.330000E+01  0.330000E+01  0.100000E-01
     1        330     2     2  0.330000E+01  0.330000E+01  0.100000E-01
     1        331     1     2  0.331000E+01  0.331000E+01  0.100000E-01
     1        331     2     2  0.331000E+01  0.331000E+01  0.100000E-01
     1        332     1     2  0.332000E+01  0.332000E+01  0.100000E-01
     1        332     2     2  0.332000E+01  0.332000E+01  0.100000E-01
     1        333     1     2  0.333000E+01  0.333000E+01  0.100000E-01
     1        333     2     2  0.333000E+01  0.333000E+01  0.100000E-01
     1        334     1     2  0.334000E+01  0.334000E+01  0.100000E-01
     1        334     2     2  0.334000E+01  0.334000E+01  0.100000E-01
     1        335     1     2  0.335000E+01  0.335000E+01  0.100000E-01
     1        335     2     2  0.335000E+01  0.335000E+01  0.100000E-01
     1        336     1     2  0.336000E+01  0.336000E+01  0.100000E-01
     1        336     2     2  0.336000E+01  0.336000E+01  0.100000E-01
     1        337     1     2  0.337000E+01  0.337000E+01  0.100000E-01
     1        337     2     2  0.337000E+01  0.337000E+01  0.100000E-01
     1        338     1     2  0.338000E+01  0.338000E+01  0.100000E-01
     1        338     2     2  0.338000E+01  0.338000E+01  0.100000E-01
     1        339     1     2  0.339000E+01  0.339000E+01  0.100000E-01
     1        339     2     2  0.339000E+01  0.339000E+01  0.100000E-01
     1        340     1     2  0.340000E+01  0.340000E+01  0.100000E-01
     1        340     2     2  0.340000E+01  0.340000E+01  0.100000E-01
     1        341     1     2  0.341000E+01  0.341000E+01  0.100000E-01
     1        341     2     2  0.341000E+01  0.341000E+01  0.100000E-01
     1        342     1     2  0.342000E+01  0.342000E+01  0.100000E-01
     1        342     2     2  0.342000E+01  0.342000E+01  0.100000E-01
     1        343     1     2  0.343000E+01  0.343000E+01  0.100000E-01
     1        343     2     2  0.343000E+01  0.343000E+01  0.100000E-01
     1        344     1     2  0.344000E+01  0.344000E+01  0.100000E-01
     1        344     2     2  0.344000E+01  0.344000E+01  0.100000E-01
     1        345     1     2  0.345000E+01  0.345000E+01  0.100000E-01
     1        345     2     2  0.345000E+01  0.345000E+01  0.100000E-01
     1        346     1     2  0.346000E+01  0.346000E+01  0.100000E-01
     1        346     2     2  0.346000E+01  0.346000E+01  0.100000E-01
     1        347     1     2  0.347000E+01  0.347000E+01  0.100000E-01
     1        347     2     2  0.347000E+01  0.347000E+01  0.100000E-01
     1        348     1     2  0.348000E+01  0.348000E+01  0.100000E-01
     1        348     2     2  0.348000E+01  0.348000E+01  0.100000E-01
     1        348     2     2  0.348000E+01  0.348000E+01  0.100000E-01
     1        349     1     2  0.349000E+01  0.349000E+01  0.100000E-01
     1        349     2     2  0.349000E+01  0.349000E+01  0.100000E-01
     1        350     1     2  0.350000E+01  0.350000E+01  0.100000E-01
     1        350     2     2  0.350000E+01  0.350000E+01  0.100000E-01
     1        351     1     2  0.351000E+01  0.351000E+01  0.100000E-01
     1        351     2     2  0.351000E+01  0.351000E+01  0.100000E-01
     1        352     1     2  0.352000E+01  0.352000E+01  0.100000E-01
     1        352     2     2  0.352000E+01  0.352000E+01  0.100000E-01
     1        353     1     2  0.353000E+01  0.353000E+01  0.100000E-01
     1        353     2     2  0.353000E+01  0.353000E+01  0.100000E-01
     1        354     1     2  0.354000E+01  0.354000E+01  0.100000E-01
     1        354     2     2  0.354000E+01  0.354000E+01  0.100000E-01
     1        355     1     2  0.355000E+01  0.355000E+01  0.100000E-01
     1        355     2     2  0.355000E+01  0.355000E+01  0.100000E-01
     1        356     1     2  0.356000E+01  0.356000E+01  0.100000E-01
     1        356     2     2  0.356000E+01  0.356000E+01  0.100000E-01
     1        357     1     2  0.357000E+01  0.357000E+01  0.100000E-01
     1        357     2     2  0.357000E+01  0.357000E+01  0.100000E-01
     1        358     1     2  0.358000E+01  0.358000E+01  0.100000E-01
     1        358     2     2  0.358000E+01  0.358000E+01  0.100000E-01
     1        359     1     2  0.359000E+01  0.359000E+01  0.100000E-01
     1        359     2     2  0.359000E+01  0.359000E+01  0.100000E-01
     1        360     1     2  0.360000E+01  0.360000E+01  0.100000E-01
     1        360     2     2  0.360000E+01  0.360000E+01  0.100000E-01
     1        361     1     2  0.361000E+01  0.361000E+01  0.100000E-01
     1        361     2     2  0.361000E+01  0.361000E+01  0.100000E-01
     1        362     1     2  0.362000E+01  0.362000E+01  0.100000E-01
     1        362     2     2  0.362000E+01  0.362000E+01  0.100000E-01
     1        363     1     2  0.363000E+01  0.363000E+01  0.100000E-01
     1        363     2     2  0.363000E+01  0.363000E+01  0.100000E-01
     1        364     1     2  0.364000E+01  0.364000E+01  0.100000E-01
     1        364     2     2  0.364000E+01  0.364000E+01  0.100000E-01
     1        365     1     2  0.365000E+01  0.365000E+01  0.100000E-01
     1        365     2     2  0.365000E+01  0.365000E+01  0.100000E-01
     1        366     1     2  0.366000E+01  0.366000E+01  0.100000E-01
     1        366     2     2  0.366000E+01  0.366000E+01  0.100000E-01
     1        367     1     2  0.367000E+01  0.367000E+01  0.100000E-01
     1        367     2     2  0.367000E+01  0.367000E+01  0.100000E-01
     1        368     1     2  0.368000E+01  0.368000E+01  0.100000E-01
     1        368     2     2  0.368000E+01  0.368000E+01  0.100000E-01
     1        369     1     2  0.369000E+01  0.369000E+01  0.100000E-01
     1        369     2     2  0.369000E+01  0.369000E+01  0.100000E-01
     1        370     1     2  0.370000E+01  0.370000E+01  0.100000E-01
     1        370     2     2  0.370000E+01  0.370000E+01  0.100000E-01
     1        371     1     2  0.371000E+01  0.371000E+01  0.100000E-01
     1        371     2     2  0.371000E+01  0.371000E+01  0.100000E-01
     1        372     1     2  0.372000E+01  0.372000E+01  0.100000E-01
     1        372     2     2  0.372000E+01  0.372000E+01  0.100000E-01
     1        373     1     2  0.373000E+01  0.373000E+01  0.100000E-01
     1        373     2     2  0.373000E+01  0.373000E+01  0.100000E-01
     1        374     1     2  0.374000E+01  0.374000E+01  0.100000E-01
     1        374     2     2  0.374000E+01  0.374000E+01  0.100000E-01
     1        375     1     2  0.375000E+01  0.375000E+01  0.100000E-01
     1        375     2     2  0.375000E+01  0.375000E+01  0.100000E-01
     1        376     1     2  0.376000E+01  0.376000E+01  0.100000E-01
     1        376     2     2  0.376000E+01  0.376000E+01  0.100000E-01
     1        377     1     2  0.377000E+01  0.377000E+01  0.100000E-01
     1        377     2     2  0.377000E+01  0.377000E+01  0.100000E-01
     1        378     1     2  0.378000E+01  0.378000E+01  0.100000E-01
     1        378     2     2  0.378000E+01  0.378000E+01  0.100000E-01
     1        379     1     2  0.379000E+01  0.379000E+01  0.100000E-01
     1        379     2     2  0.379000E+01  0.379000E+01  0.100000E-01
     1        380     1     2  0.380000E+01  0.380000E+01  0.100000E-01
     1        380     2     2  0.380000E+01  0.380000E+01  0.100000E-01
     1        381     1     2  0.381000E+01  0.381000E+01  0.100000E-01
     1        381     2     2  0.381000E+01  0.381000E+01  0.100000E-01
     1        382     1     2  0.382000E+01  0.382000E+01  0.100000E-01
     1        382     2     2  0.382000E+01  0.382000E+01  0.100000E-01
     1        383     1     2  0.383000E+01  0.383000E+01  0.100000E-01
     1        383     2     2  0.383000E+01  0.383000E+01  0.100000E-01
     1        384     1     2  0.384000E+01  0.384000E+01  0.100000E-01
     1        384     2     2  0.384000E+01  0.384000E+01  0.100000E-01
     1        385     1     2  0.385000E+01  0.385000E+01  0.100000E-01
     1        385     2     2  0.385000E+01  0.385000E+01  0.100000E-01
     1        386     1     2  0.386000E+01  0.386000E+01  0.100000E-01
     1        386     2     2  0.386000E+01  0.386000E+01  0.100000E-01
     1        387     1     2  0.387000E+01  0.387000E+01  0.100000E-01
     1        387     2     2  0.387000E+01  0.387000E+01  0.100000E-01
     1        388     1     2  0.388000E+01  0.388000E+01  0.100000E-01
     1        388     2     2  0.388000E+01  0.388000E+01  0.100000E-01
     1        389     1     2  0.389000E+01  0.389000E+01  0.100000E-01
     1        389     2     2  0.389000E+01  0.389000E+01  0.100000E-01
     1        390     1     2  0.390000E+01  0.390000E+01  0.100000E-01
     1        390     2     2  0.390000E+01  0.390000E+01  0.100000E-01
     1        391     1     2  0.391000E+01  0.391000E+01  0.100000E-01
     1        391     2     2  0.391000E+01  0.391000E+01  0.100000E-01
     1        392     1     2  0.392000E+01  0.392000E+01  0.100000E-01
     1        392     2     2  0.392000E+01  0.392000E+01  0.100000E-01
     1        393     1     2  0.393000E+01  0.393000E+01  0.100000E-01
     1        393     2     2  0.393000E+01  0.393000E+01  0.100000E-01
     1        393     2     2  0.393000E+01  0.393000E+01  0.100000E-01
     1        393     2     2  0.393000E+01  0.393000E+01  0.100000E-01
     1        394     1     2  0.394000E+01  0.394000E+01  0.100000E-01
     1        394     2     2  0.394000E+01  0.394000E+01  0.100000E-01
     1        395     1     2  0.395000E+01  0.395000E+01  0.100000E-01
     1        395     2     2  0.395000E+01  0.395000E+01  0.100000E-01
     1        396     1     2  0.396000E+01  0.396000E+01  0.100000E-01
     1        396     2     2  0.396000E+01  0.396000E+01  0.100000E-01
     1        397     1     2  0.397000E+01  0.397000E+01  0.100000E-01
     1        397     2     2  0.397000E+01  0.397000E+01  0.100000E-01
     1        398     1     2  0.398000E+01  0.398000E+01  0.100000E-01
     1        398     2     2  0.398000E+01  0.398000E+01  0.100000E-01
     1        399     1     2  0.399000E+01  0.399000E+01  0.100000E-01
     1        399     2     2  0.399000E+01  0.399000E+01  0.100000E-01
     1        400     1     2  0.400000E+01  0.400000E+01  0.100000E-01
     1        400     2     2  0.400000E+01  0.400000E+01  0.100000E-01
